12

C        1.45783770     2.30949157     2.30558454
N        2.81042330     2.10920201     2.21382332
H        0.98976755     1.41258272     1.78200014
H        1.30776704     3.05885574     1.41861754
H        3.29605906     2.00369332     1.31702867
H        3.38879921     2.39525135     3.01886883
C        1.45713990     2.30936355     2.30591279
N        2.81073426     2.10911356     2.21400671
H        0.99124268     1.41493292     1.77920557
H        1.30986437     3.05784266     1.41732786
H        3.29426086     2.00336330     1.31572536
H        3.39101875     2.39699890     3.01779637
