     6
  Step:  1000            Position(A)                                  Velocity(au)
C        -0.74958455     0.01386427     0.02816932    -0.00002124    -0.00010105    -0.00024855
C         0.67484003     0.04837433    -0.03429528     0.00017876     0.00003474     0.00015394
H        -0.90977381     0.23028060    -1.00882226    -0.00154769     0.00072012     0.00020121
H        -1.17879882    -0.97900163    -0.00718775    -0.00049752     0.00002434     0.00110605
H         1.32262192     0.65966038     0.54171069     0.00033861     0.00005124     0.00010454
H         1.09912966    -0.62257655    -0.75392807    -0.00017045    -0.00000564    -0.00028447
