    14
  Step:  1250            Position(A)                                  Velocity(au)
C        -2.58474291    -1.31776866    -0.23552398    -0.00000464     0.00017532     0.00056611
C        -1.52745280    -0.74983885    -0.79191772    -0.00047700    -0.00072705    -0.00022239
H        -3.04451926    -0.82990181     0.68255591     0.00160715     0.00014332    -0.00022211
H        -3.14590075    -2.28056931    -0.24438878     0.00212295     0.00320487    -0.00189801
H        -1.31400323    -0.99602752    -1.92101551     0.00060946     0.00104398     0.00126382
C        -0.79927555    -0.25671466     0.27527246     0.00009534     0.00008365    -0.00103166
C         0.39003414     0.36436415     0.38652485    -0.00039894    -0.00029680     0.00017717
H        -1.17995812    -0.40544637     1.22812748    -0.00227236     0.00051973    -0.00172656
H         0.95691243     0.06240829     1.39541620    -0.00060574     0.00057988     0.00167043
C         1.38359401     0.91974437    -0.32594065    -0.00000506    -0.00009231     0.00089618
H         1.47442685     1.31534018    -1.35097061    -0.00136931     0.00085502     0.00296634
N         2.59807847     0.92633727     0.19013669     0.00072603     0.00026155    -0.00021784
H         3.13089373     1.38787663    -0.45121527     0.00021218    -0.00155124    -0.00322506
H         2.66204407     0.08690262     0.85460883    -0.00134890     0.00152933    -0.00156446
