     6
  Step:  1000            Position(A)                                  Velocity(au)
C        -0.72207123    -0.02268346    -0.08025209    -0.00006658    -0.00016325     0.00010451
C         0.68028639     0.00726148    -0.05031417     0.00008087     0.00014866     0.00004765
H        -1.43656063     0.75109124    -0.45126783     0.00069711     0.00044317    -0.00137285
H        -1.33517324    -0.59405067     0.66458371    -0.00020025     0.00021611     0.00030472
H         1.29013906     0.67361080     0.63036842    -0.00003476    -0.00027910     0.00057359
H         1.42202374    -0.61688190    -0.58907173    -0.00063244    -0.00020632    -0.00131854
