6

C       -0.74958455     0.01386427     0.02816932
C        0.67484003     0.04837433    -0.03429528
H       -0.90977381     0.23028060    -1.00882226
H       -1.17879882    -0.97900163    -0.00718775
H        1.32262192     0.65966038     0.54171069
H        1.09912966    -0.62257655    -0.75392807
