     6
  Step:   400            Position(A)                                  Velocity(au)
C         6.66902638     7.55185942     7.48146462     0.00024434    -0.00000524     0.00002080
N         8.20967790     7.36630634     7.45861584    -0.00022829     0.00011926     0.00003048
H         6.03243534     7.64989855     6.57596012     0.00001338    -0.00112364     0.00006931
H         6.39502169     8.18364464     8.36414302     0.00014068     0.00070353    -0.00054744
H         8.71785422     6.83755389     8.21181283     0.00003941    -0.00098576    -0.00094485
H         8.52666482     8.36100300     7.56215789     0.00006738    -0.00018887     0.00075159
