6

C       -0.70880781    -0.00308001    -0.05440172
C        0.67396853     0.00021983    -0.03893644
H       -1.24660852     0.90589944     0.01826763
H       -1.29616283    -0.91142039    -0.03339632
H        1.19194857     0.96727906    -0.12325162
H        1.20848803    -0.89767594    -0.05062032
