6

C       -0.68907674    -0.00323057    -0.04225061
C        0.66005763     0.00238206    -0.05938835
H       -1.33637146     0.92645336    -0.11371089
H       -1.30059184    -0.88429981    -0.02060434
H        1.19977533     0.93007474    -0.04767622
H        1.26618826    -0.93323526     0.07528088
