6

C       -0.69635829     0.00596004    -0.03743383
C        0.65904132    -0.00828596    -0.02924107
H       -1.27654992     0.94151299    -0.21663875
H       -1.32434306    -0.86260419    -0.03338909
H        1.18884340     0.92246909    -0.21231494
H        1.29923919    -0.94366208    -0.04437954
