     6
  Step:  1000            Position(A)                                  Velocity(au)
C        -0.70201560     0.01035658    -0.03390254    -0.00018883     0.00005572    -0.00008589
C         0.66232661    -0.00493252    -0.04543707     0.00027023     0.00001907    -0.00000208
H        -1.27035955     0.93271072    -0.13856190    -0.00036655    -0.00158006     0.00027461
H        -1.29874194    -0.92184524    -0.09023248    -0.00015028     0.00068814     0.00051159
H         1.23111980     0.92992096    -0.07550312     0.00032049    -0.00050266     0.00032412
H         1.25343653    -0.97542006    -0.05151100    -0.00077366     0.00050343    -0.00006211
