6

C        6.66902638     7.55185942     7.48146462
N        8.20967790     7.36630634     7.45861584
H        6.03243534     7.64989855     6.57596012
H        6.39502169     8.18364464     8.36414302
H        8.71785422     6.83755389     8.21181283
H        8.52666482     8.36100300     7.56215789
