6

C       -0.72657561    -0.00194602    -0.03555681
C        0.68227005     0.05151137    -0.03332587
H       -1.23574978     0.20745284    -0.98290592
H       -1.33382612    -0.50103162     0.72759656
H        1.47000147     0.14619805     0.72181489
H        1.07004057    -0.41324438    -0.94691945
