     6
  Step:  1000            Position(A)                                  Velocity(au)
C        -0.68907674    -0.00323057    -0.04225061    -0.00018653    -0.00005071    -0.00013427
C         0.66005763     0.00238206    -0.05938835     0.00012252     0.00008874     0.00016588
H        -1.33637146     0.92645336    -0.11371089     0.00009863    -0.00029660     0.00082127
H        -1.30059184    -0.88429981    -0.02060434     0.00045960     0.00092983    -0.00013488
H         1.19977533     0.93007474    -0.04767622    -0.00026511    -0.00120816    -0.00113872
H         1.26618826    -0.93323526     0.07528088     0.00048255     0.00011997     0.00006407
