     6
  Step:   400            Position(A)                                  Velocity(au)
C         6.71934911     7.54171049     7.48688487     0.00025551    -0.00004011    -0.00000151
N         8.15997590     7.39468137     7.47141755    -0.00026293     0.00016818     0.00012317
H         6.13418717     7.58397402     6.55337640     0.00037035    -0.00067347     0.00000470
H         6.38339283     8.12339955     8.36486381     0.00002435    -0.00004317    -0.00006513
H         8.63027775     6.72060945     8.10462797    -0.00053295    -0.00101088    -0.00093975
H         8.61508556     8.33070699     7.44887090     0.00074737    -0.00013157    -0.00069343
