6

C       -0.72207164    -0.02268272    -0.08025609
C        0.68028700     0.00726401    -0.05031027
H       -1.43657044     0.75112451    -0.45119215
H       -1.33515929    -0.59411349     0.66453916
H        1.29015929     0.67355295     0.63041651
H        1.42199777    -0.61683321    -0.58914976
