     6
  Step:   400            Position(A)                                  Velocity(au)
C         6.81559291     7.55026946     7.49192591    -0.00006038     0.00001615     0.00007252
N         8.07997786     7.45499172     7.51381781     0.00004005    -0.00016461     0.00009907
H         6.35700298     7.97071294     6.58562025     0.00055008     0.00012988    -0.00074136
H         6.16212943     7.35883039     8.38173484    -0.00040472     0.00037536    -0.00056301
H         8.63550776     6.94676790     8.22197552     0.00102404     0.00060871    -0.00013969
H         8.57965497     7.54595641     6.61719625    -0.00099964     0.00098489    -0.00081343
